@<TRIPOS>MOLECULE
A1H
   32    33     1     0     0
SMALL
bcc


@<TRIPOS>ATOM
      1 C14          7.3260    -0.9890   -19.1220 ca       501 A1H      -0.079800
      2 C11          6.4940    -4.3390   -12.7230 c3       501 A1H       0.113400
      3 C13          7.0890    -0.9630   -17.7590 ca       501 A1H       0.041100
      4 C01          6.9630    -2.6210   -22.1160 c3       501 A1H      -0.090100
      5 C02          8.1950    -2.2200   -21.2530 c3       501 A1H      -0.035100
      6 C03          7.8920    -2.1620   -19.7320 ca       501 A1H      -0.043300
      7 C04          8.2020    -3.2650   -18.9310 ca       501 A1H      -0.125000
      8 C05          7.9610    -3.2370   -17.5520 ca       501 A1H      -0.153000
      9 C06          7.3940    -2.1010   -16.9550 ca       501 A1H       0.107100
     10 C08          7.1630    -3.2720   -14.8970 c3       501 A1H       0.093400
     11 C09          6.3330    -3.1030   -13.5770 c3       501 A1H       0.119600
     12 C15          6.8790     0.3400   -19.5990 cc       501 A1H      -0.180200
     13 C16          6.4180     1.0510   -18.4820 cd       501 A1H      -0.005900
     14 F10          5.0110    -2.9770   -13.8780 f        501 A1H      -0.235300
     15 O07          7.1370    -2.0410   -15.5730 os       501 A1H      -0.329900
     16 O12          6.8250    -3.9010   -11.4310 oh       501 A1H      -0.593800
     17 O17          6.5570     0.2590   -17.3990 os       501 A1H      -0.195200
     18 H111         7.2960    -4.9700   -13.1250 h1       501 A1H       0.055200
     19 H112         5.5550    -4.9050   -12.7020 h1       501 A1H       0.055200
     20 H013         7.2900    -3.2790   -22.9400 hc       501 A1H       0.038367
     21 H012         6.4960    -1.7130   -22.5350 hc       501 A1H       0.038367
     22 H011         6.2310    -3.1550   -21.4870 hc       501 A1H       0.038367
     23 H021         8.5530    -1.2040   -21.5870 hc       501 A1H       0.050200
     24 H022         9.0160    -2.9730   -21.4270 hc       501 A1H       0.050200
     25 H041         8.6360    -4.1580   -19.3860 ha       501 A1H       0.138000
     26 H051         8.2120    -4.0870   -16.9520 ha       501 A1H       0.144000
     27 H082         8.2060    -3.5440   -14.6530 h1       501 A1H       0.056700
     28 H081         6.7100    -4.0570   -15.5290 h1       501 A1H       0.056700
     29 H091         6.6900    -2.2240   -13.0490 h1       501 A1H       0.083700
     30 H151         6.9030     0.6950   -20.6150 ha       501 A1H       0.168000
     31 H161         6.0140     2.0760   -18.4880 h4       501 A1H       0.195000
     32 H121         7.6360    -3.4350   -11.4300 ho       501 A1H       0.424000
@<TRIPOS>BOND
     1     1     3 ar  
     2     1     6 ar  
     3     1    12 1   
     4     2    11 1   
     5     2    16 1   
     6     2    18 1   
     7     2    19 1   
     8     3     9 ar  
     9     3    17 1   
    10     4     5 1   
    11     4    20 1   
    12     4    21 1   
    13     4    22 1   
    14     5     6 1   
    15     5    23 1   
    16     5    24 1   
    17     6     7 ar  
    18     7     8 ar  
    19     7    25 1   
    20     8     9 ar  
    21     8    26 1   
    22     9    15 1   
    23    10    11 1   
    24    10    15 1   
    25    10    27 1   
    26    10    28 1   
    27    11    14 1   
    28    11    29 1   
    29    12    13 2   
    30    12    30 1   
    31    13    17 1   
    32    13    31 1   
    33    16    32 1   
@<TRIPOS>SUBSTRUCTURE
     1 A1H         1 TEMP              0 ****  ****    0 ROOT
