@<TRIPOS>MOLECULE
A1H
   32    33     1     0     0
SMALL
bcc


@<TRIPOS>ATOM
      1 C14          7.3260    -0.9890   -19.1220 ca       501 A1H      -0.071800
      2 C11          6.4940    -4.3390   -12.7230 c3       501 A1H       0.098400
      3 C13          7.0890    -0.9630   -17.7590 ca       501 A1H       0.034100
      4 C01          6.9630    -2.6210   -22.1160 c3       501 A1H      -0.090100
      5 C02          8.1950    -2.2200   -21.2530 c3       501 A1H      -0.031100
      6 C03          7.8920    -2.1620   -19.7320 ca       501 A1H      -0.064300
      7 C04          8.2020    -3.2650   -18.9310 ca       501 A1H      -0.113000
      8 C05          7.9610    -3.2370   -17.5520 ca       501 A1H      -0.190000
      9 C06          7.3940    -2.1010   -16.9550 ca       501 A1H       0.140100
     10 C08          7.1630    -3.2720   -14.8970 c3       501 A1H       0.098400
     11 C09          6.3330    -3.1030   -13.5770 c3       501 A1H       0.167600
     12 C15          6.8790     0.3400   -19.5990 cc       501 A1H      -0.185200
     13 C16          6.4180     1.0510   -18.4820 cd       501 A1H      -0.010900
     14 F10          5.0110    -2.9770   -13.8780 f        501 A1H      -0.232300
     15 O07          7.1370    -2.0410   -15.5730 os       501 A1H      -0.308900
     16 O12          6.8250    -3.9010   -11.4310 oh       501 A1H      -0.598800
     17 O17          6.5570     0.2590   -17.3990 os       501 A1H      -0.180200
     18 H112         7.2900    -4.9680   -13.1210 h1       501 A1H       0.040200
     19 H113         5.5580    -4.8970   -12.6970 h1       501 A1H       0.040200
     20 H022         8.5360    -1.2360   -21.5750 hc       501 A1H       0.047700
     21 H023         8.9940    -2.9420   -21.4250 hc       501 A1H       0.047700
     22 H04          8.6320    -4.1480   -19.3810 ha       501 A1H       0.134000
     23 H05          8.2130    -4.0940   -16.9450 ha       501 A1H       0.139000
     24 H082         6.7180    -4.0480   -15.5200 h1       501 A1H       0.062200
     25 H083         8.1920    -3.5380   -14.6550 h1       501 A1H       0.062200
     26 H09          6.6760    -2.2250   -13.0300 h1       501 A1H       0.090700
     27 H15          6.9040     0.6960   -20.6180 ha       501 A1H       0.165000
     28 H16          6.0220     2.0560   -18.4880 h4       501 A1H       0.190000
     29 H011         7.2470    -2.6420   -23.1680 hc       501 A1H       0.036367
     30 H012         6.6150    -3.6090   -21.8150 hc       501 A1H       0.036367
     31 H013         6.1640    -1.8940   -21.9690 hc       501 A1H       0.036367
     32 H12          6.9370    -4.6600   -10.8540 ho       501 A1H       0.410000
@<TRIPOS>BOND
     1     1     3 ar  
     2     1     6 ar  
     3     1    12 1   
     4     2    11 1   
     5     2    16 1   
     6     2    18 1   
     7     2    19 1   
     8     3     9 ar  
     9     3    17 1   
    10     4     5 1   
    11     4    29 1   
    12     4    30 1   
    13     4    31 1   
    14     5     6 1   
    15     5    20 1   
    16     5    21 1   
    17     6     7 ar  
    18     7     8 ar  
    19     7    22 1   
    20     8     9 ar  
    21     8    23 1   
    22     9    15 1   
    23    10    11 1   
    24    10    15 1   
    25    10    24 1   
    26    10    25 1   
    27    11    14 1   
    28    11    26 1   
    29    12    13 2   
    30    12    27 1   
    31    13    17 1   
    32    13    28 1   
    33    16    32 1   
@<TRIPOS>SUBSTRUCTURE
     1 A1H         1 TEMP              0 ****  ****    0 ROOT
