@<TRIPOS>MOLECULE
Molecule
   79    81     1     0     0
SMALL
bcc

@<TRIPOS>ATOM
      1 C    -16.1970 21.1320 -25.3050 c 401 MOL 0.107358
      2 C    -17.2110 19.8420 -29.6640 c 401 MOL 0.007829
      3 C    -19.1390 17.7230 -27.3240 c 401 MOL 0.120764
      4 C    -19.1380 16.5640 -24.5680 c 401 MOL 0.123371
      5 C    -19.1500 14.2860 -22.0160 c 401 MOL 0.202496
      6 C    -18.5770 21.4640 -25.7030 c 401 MOL -0.033885
      7 C    -18.4380 22.0410 -24.5540 c 401 MOL -0.002103
      8 C    -20.8000 15.3980 -25.8550 c 401 MOL 0.004793
      9 C    -17.1620 20.5200 -25.9250 c 401 MOL 0.001005
     10 C    -19.0170 16.2120 -26.9080 c 401 MOL 0.055144
     11 C    -20.7850 14.5510 -27.2000 c 401 MOL -0.018010
     12 C    -19.5680 15.1570 -27.9820 c 401 MOL -0.011751
     13 C    -19.7450 13.6170 -27.8850 c 401 MOL -0.026215
     14 C    -18.7690 13.0020 -26.8420 c 401 MOL -0.059245
     15 C    -20.1890 12.8710 -29.1500 c 401 MOL -0.059245
     16 C    -21.4010 18.3190 -23.7170 c 401 MOL -0.058530
     17 C    -21.2500 17.2850 -21.3810 c 401 MOL -0.058530
     18 C    -19.3310 18.6360 -22.2960 c 401 MOL -0.058530
     19 C    -16.8490 20.4990 -27.4430 c 401 MOL -0.029764
     20 C    -17.8700 19.7430 -28.3030 c 401 MOL 0.021807
     21 C    -19.9170 16.3370 -23.2580 c 401 MOL 0.053916
     22 C    -18.0790 13.6910 -21.1040 c 401 MOL 0.427483
     23 C    -20.4720 17.6540 -22.6710 c 401 MOL -0.018907
     24 N    -17.5670 20.7860 -30.4040 n 401 MOL -0.328921
     25 N    -16.8740 22.2120 -24.3280 n 401 MOL -0.292102
     26 N    -19.6910 16.0150 -25.8110 n 401 MOL -0.269601
     27 N    -17.9320 18.3460 -27.8850 n 401 MOL -0.286940
     28 N    -18.9850 15.6950 -22.3720 n 401 MOL -0.277330
     29 O    -15.0330 20.9650 -25.4120 o 401 MOL -0.378323
     30 O    -20.1560 18.3290 -27.1610 o 401 MOL -0.376921
     31 O    -18.0940 17.1360 -24.6340 o 401 MOL -0.376685
     32 O    -20.0550 13.6240 -22.4130 o 401 MOL -0.370129
     33 F    -18.1410 14.2930 -19.8860 f 401 MOL -0.166732
     34 F    -16.8640 13.9500 -21.6860 f 401 MOL -0.166732
     35 F    -18.2870 12.3460 -20.9960 f 401 MOL -0.166732
     36 H    -16.1575 21.8830 -26.1078 h 401 MOL 0.077761
     37 H    -16.1276 19.9398 -29.5008 h 401 MOL 0.044177
     38 H    -17.5219 18.9312 -30.1967 h 401 MOL 0.044177
     39 H    -18.8261 18.0263 -26.3140 h 401 MOL 0.079196
     40 H    -18.5844 15.6282 -24.4010 h 401 MOL 0.079436
     41 H    -19.7390 14.5778 -21.1340 h 401 MOL 0.087450
     42 H    -19.4701 20.8218 -25.7038 h 401 MOL 0.028390
     43 H    -18.7055 22.1980 -26.5121 h 401 MOL 0.028390
     44 H    -18.9320 23.0238 -24.5589 h 401 MOL 0.042891
     45 H    -18.8959 21.4465 -23.7497 h 401 MOL 0.042891
     46 H    -21.6346 16.1145 -25.8652 h 401 MOL 0.043489
     47 H    -20.9329 14.7505 -24.9757 h 401 MOL 0.043489
     48 H    -17.2834 19.4947 -25.5454 h 401 MOL 0.034448
     49 H    -17.9362 16.0371 -26.8017 h 401 MOL 0.051298
     50 H    -21.8566 14.3125 -27.1309 h 401 MOL 0.032517
     51 H    -19.1745 15.6755 -28.8687 h 401 MOL 0.032951
     52 H    -19.1273 13.2278 -25.8268 h 401 MOL 0.023614
     53 H    -18.7235 11.9117 -26.9807 h 401 MOL 0.023614
     54 H    -17.7659 13.4315 -26.9807 h 401 MOL 0.023614
     55 H    -20.7324 11.9579 -28.8655 h 401 MOL 0.023614
     56 H    -20.8482 13.5195 -29.7457 h 401 MOL 0.023614
     57 H    -19.3047 12.6008 -29.7457 h 401 MOL 0.023614
     58 H    -22.1904 18.8840 -23.1997 h 401 MOL 0.023642
     59 H    -20.8134 19.0029 -24.3471 h 401 MOL 0.023642
     60 H    -21.8590 17.5423 -24.3471 h 401 MOL 0.023642
     61 H    -20.6546 17.5674 -20.5003 h 401 MOL 0.023642
     62 H    -22.2085 17.8244 -21.3639 h 401 MOL 0.023642
     63 H    -21.4387 16.2014 -21.3639 h 401 MOL 0.023642
     64 H    -19.2513 18.7046 -21.2010 h 401 MOL 0.023642
     65 H    -18.3804 18.2691 -22.7105 h 401 MOL 0.023642
     66 H    -19.5522 19.6306 -22.7105 h 401 MOL 0.023642
     67 H    -16.8073 21.5394 -27.7977 h 401 MOL 0.028732
     68 H    -15.8951 19.9625 -27.5538 h 401 MOL 0.028732
     69 H    -18.8982 20.1308 -28.2533 h 401 MOL 0.047908
     70 H    -20.8098 15.7157 -23.4223 h 401 MOL 0.051297
     71 H    -17.8674 21.5824 -29.8240 h 401 MOL 0.118445
     72 H    -16.7765 21.0731 -30.9986 h 401 MOL 0.118445
     73 H    -16.5736 23.1652 -24.5772 h 401 MOL 0.124747
     74 H    -17.6895 17.7912 -28.7182 h 401 MOL 0.125131
     75 H    -18.0556 15.7826 -22.8073 h 401 MOL 0.125534
     76 H    -14.6240 20.9063 -24.5124 h 401 MOL 0.212241
     77 H    -20.3275 18.4312 -26.1913 h 401 MOL 0.212311
     78 H    -17.7597 17.3191 -23.7203 h 401 MOL 0.212322
     79 H    -20.5575 13.2564 -21.6433 h 401 MOL 0.212636
